16

N         -4.895301    1.224615    0.046877
N         -3.654148    1.623677    0.072005
C         -5.127533   -0.084437   -0.024061
N         -4.191031   -1.028761   -0.071991
N         -2.949878   -0.629699   -0.046863
C         -2.717646    0.679352    0.024078
O         -1.471682    1.127377    0.051798
C         -0.424043    0.163658    0.004088
H         -0.478422   -0.513509    0.855638
H          0.494809    0.740156    0.037806
H         -0.472370   -0.419470   -0.914753
O         -6.373497   -0.532461   -0.051794
C         -7.421136    0.431259   -0.004096
H         -7.372819    1.014387    0.914746
H         -8.339988   -0.145239   -0.037825
H         -7.366746    1.108426   -0.855645
