8
 generated by VMD
 N        -4.895301        1.224615        0.046877
 N        -3.654148        1.623677        0.072005
 C        -5.127533       -0.084437       -0.024061
 N        -4.191031       -1.028761       -0.071991
 N        -2.949878       -0.629699       -0.046863
 C        -2.717646        0.679352        0.024078
 H        -1.471682        1.127377        0.051798
 H        -6.373497       -0.532461       -0.051794
